LAMMPS (29 Sep 2021)
clear
units real
boundary p p p
atom_style full

neighbor 2.0 bin

# ------------------------ MOF-FF FORCE FIELD ------------------------------

pair_style buck6d/coul/gauss/long     0.9000     0.9000    12.0000
box tilt large
read_data C0_222.data
Reading data file ...
  triclinic box = (0.0000000 0.0000000 0.0000000) to (52.058726 52.063168 52.056692) with tilt (0.0063040000 -0.0043380000 0.0053260000)
  reading atoms ...
  3392 atoms
  scanning bonds ...
  scanning angles ...
  scanning dihedrals ...
  scanning impropers ...
  reading bonds ...
  4096 bonds
  reading angles ...
  7296 angles
  reading dihedrals ...
  12288 dihedrals
  reading impropers ...
  1536 impropers
Finding 1-2 1-3 1-4 neighbors ...
     4 = max # of 1-2 neighbors
    12 = max # of 1-3 neighbors
    24 = max # of 1-4 neighbors
    22 = max # of special neighbors
include			parameters.dat.txt
pair_coeff     1     1           10856       3.2967033        308.7755       1.6022517      0.63270113    # buck6d->(o4_zn4@zn4o)|Zn4O_benz/gaussian->(o4_zn4@zn4o)|Zn4O_benz <--> buck6d->(o4_zn4@zn4o)|Zn4O_benz/gaussian->(o4_zn4@zn4o)|Zn4O_benz
pair_coeff     1     2       23480.015        2.919708       1383.9296       8.7719648      0.42456807    # buck6d->(o4_zn4@zn4o)|Zn4O_benz/gaussian->(o4_zn4@zn4o)|Zn4O_benz <--> buck6d->(zn4_o4@zn4o)|Zn4O_benz/gaussian->(zn4_o4@zn4o)|Zn4O_benz
pair_coeff     1     3           10856       3.2967033        308.7755       1.6022517      0.63270113    # buck6d->(o4_zn4@zn4o)|Zn4O_benz/gaussian->(o4_zn4@zn4o)|Zn4O_benz <--> buck6d->(o2_c1zn1@co2)|Zn4O_benz/gaussian->(o2_c1zn1@co2)|Zn4O_benz
pair_coeff     1     4       10576.399       3.1914894       365.45138       2.5231391      0.61998309    # buck6d->(o4_zn4@zn4o)|Zn4O_benz/gaussian->(o4_zn4@zn4o)|Zn4O_benz <--> buck6d->(c3_c1o2@co2)|Zn4O_benz/gaussian->(c3_c1o2@co2)|Zn4O_benz
pair_coeff     1     5       10576.399       3.1746032       377.27092       2.7176691      0.61998697    # buck6d->(o4_zn4@zn4o)|Zn4O_benz/gaussian->(o4_zn4@zn4o)|Zn4O_benz <--> buck6d->(c3_c2h1@ph)|benzene/gaussian->(c3_c2h1@ph)|benzene
pair_coeff     1     6       10576.399       3.1746032       377.27092       2.7176691      0.61998309    # buck6d->(o4_zn4@zn4o)|Zn4O_benz/gaussian->(o4_zn4@zn4o)|Zn4O_benz <--> buck6d->(c3_c2h1@ph)|benzene/gaussian->(c3_c3@ph)|Zn4O_benz
pair_coeff     1     7       6320.6076       3.6144578       103.50278      0.44181916      0.75107727    # buck6d->(o4_zn4@zn4o)|Zn4O_benz/gaussian->(o4_zn4@zn4o)|Zn4O_benz <--> buck6d->(h1_c1@ph)|benzene/gaussian->(h1_c1@ph)|benzene
pair_coeff     2     2           50784       2.6200873       5731.7134        39.94184      0.34105377    # buck6d->(zn4_o4@zn4o)|Zn4O_benz/gaussian->(zn4_o4@zn4o)|Zn4O_benz <--> buck6d->(zn4_o4@zn4o)|Zn4O_benz/gaussian->(zn4_o4@zn4o)|Zn4O_benz
pair_coeff     2     3       23480.015        2.919708       1383.9296       8.7719648      0.42456807    # buck6d->(zn4_o4@zn4o)|Zn4O_benz/gaussian->(zn4_o4@zn4o)|Zn4O_benz <--> buck6d->(o2_c1zn1@co2)|Zn4O_benz/gaussian->(o2_c1zn1@co2)|Zn4O_benz
pair_coeff     2     4       22875.278       2.8368794       1602.4086       13.124311      0.42066066    # buck6d->(zn4_o4@zn4o)|Zn4O_benz/gaussian->(zn4_o4@zn4o)|Zn4O_benz <--> buck6d->(c3_c1o2@co2)|Zn4O_benz/gaussian->(c3_c1o2@co2)|Zn4O_benz
pair_coeff     2     5       22875.278       2.8235294       1648.4078        14.02027      0.42066187    # buck6d->(zn4_o4@zn4o)|Zn4O_benz/gaussian->(zn4_o4@zn4o)|Zn4O_benz <--> buck6d->(c3_c2h1@ph)|benzene/gaussian->(c3_c2h1@ph)|benzene
pair_coeff     2     6       22875.278       2.8235294       1648.4078        14.02027      0.42066066    # buck6d->(zn4_o4@zn4o)|Zn4O_benz/gaussian->(zn4_o4@zn4o)|Zn4O_benz <--> buck6d->(c3_c2h1@ph)|benzene/gaussian->(c3_c3@ph)|Zn4O_benz
pair_coeff     2     7       13670.593       3.1662269       495.43572       2.8200727      0.45538243    # buck6d->(zn4_o4@zn4o)|Zn4O_benz/gaussian->(zn4_o4@zn4o)|Zn4O_benz <--> buck6d->(h1_c1@ph)|benzene/gaussian->(h1_c1@ph)|benzene
pair_coeff     3     3           10856       3.2967033        308.7755       1.6022517      0.63270113    # buck6d->(o2_c1zn1@co2)|Zn4O_benz/gaussian->(o2_c1zn1@co2)|Zn4O_benz <--> buck6d->(o2_c1zn1@co2)|Zn4O_benz/gaussian->(o2_c1zn1@co2)|Zn4O_benz
pair_coeff     3     4       10576.399       3.1914894       365.45138       2.5231391      0.61998309    # buck6d->(o2_c1zn1@co2)|Zn4O_benz/gaussian->(o2_c1zn1@co2)|Zn4O_benz <--> buck6d->(c3_c1o2@co2)|Zn4O_benz/gaussian->(c3_c1o2@co2)|Zn4O_benz
pair_coeff     3     5       10576.399       3.1746032       377.27092       2.7176691      0.61998697    # buck6d->(o2_c1zn1@co2)|Zn4O_benz/gaussian->(o2_c1zn1@co2)|Zn4O_benz <--> buck6d->(c3_c2h1@ph)|benzene/gaussian->(c3_c2h1@ph)|benzene
pair_coeff     3     6       10576.399       3.1746032       377.27092       2.7176691      0.61998309    # buck6d->(o2_c1zn1@co2)|Zn4O_benz/gaussian->(o2_c1zn1@co2)|Zn4O_benz <--> buck6d->(c3_c2h1@ph)|benzene/gaussian->(c3_c3@ph)|Zn4O_benz
pair_coeff     3     7       6320.6076       3.6144578       103.50278      0.44181916      0.75107727    # buck6d->(o2_c1zn1@co2)|Zn4O_benz/gaussian->(o2_c1zn1@co2)|Zn4O_benz <--> buck6d->(h1_c1@ph)|benzene/gaussian->(h1_c1@ph)|benzene
pair_coeff     4     4           10304       3.0927835       429.89352       3.9170177      0.60800239    # buck6d->(c3_c1o2@co2)|Zn4O_benz/gaussian->(c3_c1o2@co2)|Zn4O_benz <--> buck6d->(c3_c1o2@co2)|Zn4O_benz/gaussian->(c3_c1o2@co2)|Zn4O_benz
pair_coeff     4     5           10304       3.0769231       443.36171       4.2093581      0.60800605    # buck6d->(c3_c1o2@co2)|Zn4O_benz/gaussian->(c3_c1o2@co2)|Zn4O_benz <--> buck6d->(c3_c2h1@ph)|benzene/gaussian->(c3_c2h1@ph)|benzene
pair_coeff     4     6           10304       3.0769231       443.36171       4.2093581      0.60800239    # buck6d->(c3_c1o2@co2)|Zn4O_benz/gaussian->(c3_c1o2@co2)|Zn4O_benz <--> buck6d->(c3_c2h1@ph)|benzene/gaussian->(c3_c3@ph)|Zn4O_benz
pair_coeff     4     7       6157.8178       3.4883721        124.7792      0.72632262      0.73005908    # buck6d->(c3_c1o2@co2)|Zn4O_benz/gaussian->(c3_c1o2@co2)|Zn4O_benz <--> buck6d->(h1_c1@ph)|benzene/gaussian->(h1_c1@ph)|benzene
pair_coeff     5     5           10304       3.0612245       457.17971       4.5218516      0.60800971    # buck6d->(c3_c2h1@ph)|benzene/gaussian->(c3_c2h1@ph)|benzene <--> buck6d->(c3_c2h1@ph)|benzene/gaussian->(c3_c2h1@ph)|benzene
pair_coeff     5     6           10304       3.0612245       457.17971       4.5218516      0.60800605    # buck6d->(c3_c2h1@ph)|benzene/gaussian->(c3_c2h1@ph)|benzene <--> buck6d->(c3_c2h1@ph)|benzene/gaussian->(c3_c3@ph)|Zn4O_benz
pair_coeff     5     7       6157.8178       3.4682081       129.19572      0.78772886      0.73006542    # buck6d->(c3_c2h1@ph)|benzene/gaussian->(c3_c2h1@ph)|benzene <--> buck6d->(h1_c1@ph)|benzene/gaussian->(h1_c1@ph)|benzene
pair_coeff     6     6           10304       3.0612245       457.17971       4.5218516      0.60800239    # buck6d->(c3_c2h1@ph)|benzene/gaussian->(c3_c3@ph)|Zn4O_benz <--> buck6d->(c3_c2h1@ph)|benzene/gaussian->(c3_c3@ph)|Zn4O_benz
pair_coeff     6     7       6157.8178       3.4682081       129.19572      0.78772886      0.73005908    # buck6d->(c3_c2h1@ph)|benzene/gaussian->(c3_c3@ph)|Zn4O_benz <--> buck6d->(h1_c1@ph)|benzene/gaussian->(h1_c1@ph)|benzene
pair_coeff     7     7            3680               4          32.805      0.10690769       0.9771554    # buck6d->(h1_c1@ph)|benzene/gaussian->(h1_c1@ph)|benzene <--> buck6d->(h1_c1@ph)|benzene/gaussian->(h1_c1@ph)|benzene

bond_style hybrid class2 morse harmonic

bond_coeff     3 class2     1.275000   620.986080 -1583.514504  2355.477825    # mm3->(c3_c1o2@co2,o2_c1zn1@co2)|Zn4O_benz
bond_coeff     4 class2     1.488000   355.167780  -905.677839  1347.195786    # mm3->(c3_c1o2@co2,c3_c3@ph)|Zn4O_benz
bond_coeff     6 class2     1.094000   390.634200  -996.117210  1481.724350    # mm3->(c3_c2h1@ph,h1_c1@ph)|benzene
bond_coeff     1 morse    50.000000    1.463685     1.987000    # morse->(o4_zn4@zn4o,zn4_o4@zn4o)|Zn4O_benz
bond_coeff     5 class2     1.394000   509.335200 -1298.804760  1931.972080    # mm3->(c3_c2h1@ph,c3_c2h1@ph)|benzene
bond_coeff     2 morse    50.000000    1.547773     1.917000    # morse->(o2_c1zn1@co2,zn4_o4@zn4o)|Zn4O_benz

angle_style hybrid class2/p6 cosine/buck6d

angle_coeff     4 class2/p6      135.606000     6.762360    -5.424366     1.243173    -0.890357     1.603288    # mm3->(c3_c1o2@co2,o2_c1zn1@co2,zn4_o4@zn4o)|Zn4O_benz
angle_coeff     4 class2/p6 bb 0.0 1.0 1.0
angle_coeff     4 class2/p6 ba 0.0 0.0 1.0 1.0
angle_coeff     5 class2/p6      123.006000   111.866700   -89.732857    20.565256   -14.728780    26.522474    # mm3->(o2_c1zn1@co2,c3_c1o2@co2,o2_c1zn1@co2)|Zn4O_benz
angle_coeff     5 class2/p6 bb 0.0 1.0 1.0
angle_coeff     5 class2/p6 ba 0.0 0.0 1.0 1.0
angle_coeff     3 class2/p6      123.103000     5.755200    -4.616481     1.058020    -0.757751     1.364500    # mm3->(o2_c1zn1@co2,zn4_o4@zn4o,o2_c1zn1@co2)|Zn4O_benz
angle_coeff     3 class2/p6 bb 0.0 1.0 1.0
angle_coeff     3 class2/p6 ba 0.0 0.0 1.0 1.0
angle_coeff     9 class2/p6      117.296000    57.983640   -46.511050    10.659547    -7.634339    13.747340    # mm3->(c3_c1o2@co2,c3_c3@ph,c3_c2h1@ph)|Zn4O_benz
angle_coeff     9 class2/p6 bb 0.0 1.0 1.0
angle_coeff     9 class2/p6 ba 0.0 0.0 1.0 1.0
angle_coeff     2 class2/p6      113.584000     0.000000    -0.000000     0.000000    -0.000000     0.000000    # mm3->(o2_c1zn1@co2,zn4_o4@zn4o,o4_zn4@zn4o)|Zn4O_benz
angle_coeff     2 class2/p6 bb     0.000000     1.917000     1.987000
angle_coeff     2 class2/p6 ba     0.000000     0.000000     1.917000     1.987000
angle_coeff     8 class2/p6      120.350000    36.185820   -29.026127     6.652298    -4.764358     8.579296    # mm3->(c3_c2h1@ph,c3_c2h1@ph,h1_c1@ph)|benzene
angle_coeff     8 class2/p6 bb    93.378120     1.394000     1.094000
angle_coeff     8 class2/p6 ba   -25.179000    53.523360     1.394000     1.094000
angle_coeff     1 class2/p6      103.992000    50.214120   -40.278800     9.231221    -6.611375    11.905265    # mm3->(zn4_o4@zn4o,o4_zn4@zn4o,zn4_o4@zn4o)|Zn4O_benz
angle_coeff     1 class2/p6 bb     7.625640     1.987000     1.987000
angle_coeff     1 class2/p6 ba    18.416640    18.416640     1.987000     1.987000
angle_coeff     7 class2/p6      127.050000    53.307540   -42.760159     9.799907    -7.018666    12.638684    # mm3->(c3_c2h1@ph,c3_c2h1@ph,c3_c2h1@ph)|benzene
angle_coeff     7 class2/p6 bb    71.796120     1.394000     1.394000
angle_coeff     7 class2/p6 ba     6.762360     6.762360     1.394000     1.394000
angle_coeff     6 class2/p6      116.368000    77.191620   -61.918557    14.190688   -10.163332    18.301360    # mm3->(c3_c3@ph,c3_c1o2@co2,o2_c1zn1@co2)|Zn4O_benz
angle_coeff     6 class2/p6 bb 0.0 1.0 1.0
angle_coeff     6 class2/p6 ba 0.0 0.0 1.0 1.0

dihedral_style opls

dihedral_coeff     5     0.000000     3.012000     0.000000     0.000000    # cos3->(c3_c3@ph,c3_c1o2@co2,o2_c1zn1@co2,zn4_o4@zn4o)|Zn4O_benz
dihedral_coeff     4     0.000000     0.076000     0.000000     0.000000    # cos3->(o2_c1zn1@co2,c3_c1o2@co2,o2_c1zn1@co2,zn4_o4@zn4o)|Zn4O_benz
dihedral_coeff     3     0.000000     0.000000     0.000000     0.000000    # cos3->(c3_c1o2@co2,o2_c1zn1@co2,zn4_o4@zn4o,o2_c1zn1@co2)|Zn4O_benz
dihedral_coeff    10     0.000000     0.000000     0.000000     0.000000    # cos3->(c3_c2h1@ph,c3_c2h1@ph,c3_c3@ph,c3_c1o2@co2)|Zn4O_benz
dihedral_coeff     8     0.000000     6.316000     0.000000     0.000000    # cos3->(c3_c2h1@ph,c3_c2h1@ph,c3_c2h1@ph,h1_c1@ph)|benzene
dihedral_coeff     2     0.000000     0.000000     0.000000     0.000000    # cos3->(c3_c1o2@co2,o2_c1zn1@co2,zn4_o4@zn4o,o4_zn4@zn4o)|Zn4O_benz
dihedral_coeff     7     0.000000     4.379000     0.000000     0.000000    # cos3->(c3_c2h1@ph,c3_c2h1@ph,c3_c2h1@ph,c3_c2h1@ph)|benzene
dihedral_coeff    11     0.000000     0.000000     0.000000     0.000000    # cos3->(h1_c1@ph,c3_c2h1@ph,c3_c3@ph,c3_c1o2@co2)|Zn4O_benz
dihedral_coeff     9     0.000000     5.972000     0.000000     0.000000    # cos3->(h1_c1@ph,c3_c2h1@ph,c3_c2h1@ph,h1_c1@ph)|benzene
dihedral_coeff     6     0.000000     1.902000     0.000000     0.000000    # cos3->(o2_c1zn1@co2,c3_c1o2@co2,c3_c3@ph,c3_c2h1@ph)|Zn4O_benz
dihedral_coeff     1     0.000000     0.000000     0.000000     0.000000    # cos3->(zn4_o4@zn4o,o4_zn4@zn4o,zn4_o4@zn4o,o2_c1zn1@co2)|Zn4O_benz

improper_style inversion/harmonic

improper_coeff     2     4.100580     0.000000    # harm->(c3_c2h1@ph,c3_c2h1@ph,c3_c2h1@ph,h1_c1@ph)|benzene
improper_coeff     3   189.921600     0.000000    # harm->(c3_c3@ph,c3_c1o2@co2,c3_c2h1@ph,c3_c2h1@ph)|Zn4O_benz
improper_coeff     1    40.574160     0.000000    # harm->(c3_c1o2@co2,c3_c3@ph,o2_c1zn1@co2,o2_c1zn1@co2)|Zn4O_benz

special_bonds lj 0.00 0.00 1.00 coul 1.00 1.00 1.00
Finding 1-2 1-3 1-4 neighbors ...
     4 = max # of 1-2 neighbors
    12 = max # of 1-3 neighbors
    22 = max # of special neighbors

change_box all  triclinic
Changing box ...
  triclinic box = (0.0000000 0.0000000 0.0000000) to (52.058726 52.063168 52.056692) with tilt (0.0063040000 -0.0043380000 0.0053260000)
kspace_style pppm      1e-06
# ------------------------ MOF-FF FORCE FIELD END --------------------------

shell mkdir     data_nc
shell cd        data_nc
##---------------------------------------------------------------------------------------
min_style		cg
minimize		0.0 1.0e-8 1000 10000
PPPM initialization ...
  G vector (1/distance) = 0.27515811
  grid = 54 54 54
  stencil order = 5
  estimated absolute RMS force accuracy = 0.00029521763
  estimated relative force accuracy = 8.8903912e-07
  3d grid and FFT values/proc = 6615 1568
  update every 1 steps, delay 0 steps, check yes
Step Temp E_pair E_mol TotEng Press
0            0   -115667.52    1998.9622   -113668.56   -442.41058
Loop time of 5.51021 on 112 procs for 513 steps with 3392 atoms

Minimization stats:
  Stopping criterion = linesearch alpha is zero
  Energy initial, next-to-last, final =
  Force two-norm initial, final = 97.588521 0.0058735825
  Force max component initial, final = 3.5120644 0.00037493272
  Final line search alpha, max atom move = 0.00024414062 9.1536309e-08
  Iterations, force evaluations = 513 1052

velocity     	all create 300 3204550 dist gaussian mom yes rot no

#-----------------------------------------------------------------------------

variable		R		equal 0.00198722
variable		sysvol		equal vol
variable		sysmass		equal mass(all)/6.0221367e+23
variable		sysdensity	equal v_sysmass/v_sysvol/1.0e-24
variable		coulomb		equal ecoul+elong
variable		etotal		equal etotal
variable		pe		equal pe
variable		ke		equal ke
variable		evdwl		equal evdwl
variable		epair		equal epair
variable		ebond		equal ebond
variable		eangle		equal eangle
variable		edihed		equal edihed
variable		eimp		equal eimp
variable		lx		equal lx
variable		ly		equal ly
variable		lz		equal lz
variable		Nthermo		equal 0
variable		cella		equal lx
variable		cellb		equal sqrt(ly*ly+xy*xy)
variable		cellc		equal sqrt(lz*lz+xz*xz+yz*yz)
variable		cellalpha	equal acos((xy*xz+ly*yz)/(v_cellb*v_cellc))
variable		cellbeta	equal acos(xz/v_cellc)
variable		cellgamma	equal acos(xy/v_cellb)
variable		p		equal press
variable		pxx		equal pxx
variable		pyy		equal pyy
variable		pzz		equal pzz
variable		pyz		equal pyz
variable		pxz		equal pxz
variable		pxy		equal pxy
variable		sxx		equal -pxx
variable		syy		equal -pyy
variable		szz		equal -pzz
variable		syz		equal -pyz
variable		sxz		equal -pxz
variable		sxy		equal -pxy
variable		fmax		equal fmax
variable	        fnorm		equal fnorm
variable		time equal step*dt+0.000001
variable		surfacetension equal 0.5*v_lz*(0.5*(v_sxx+v_syy)-v_szz)

#-------------------------------------------------------------------------------
timestep	    1
thermo_style custom step evdwl ebond eangle edihed eimp pe ke etotal temp press vol v_coulomb enthalpy spcpu
thermo 1000

variable        TEMP        equal 300

fix             1 all npt temp  300 300 100  tri  0 0 1000
run		100000
PPPM initialization ...
  G vector (1/distance) = 0.27515811
  grid = 54 54 54
  stencil order = 5
  estimated absolute RMS force accuracy = 0.00029521763
  estimated relative force accuracy = 8.8903912e-07
  3d grid and FFT values/proc = 6615 1568
Step E_vdwl E_bond E_angle E_dihed E_impro PotEng KinEng TotEng Temp Press Volume v_coulomb Enthalpy S/CPU
513    500.42076    268.56106    1788.9936 3.3835134e-05 3.0414069e-07   -113681.16    3032.3781   -110648.78          300    675.77553    141091.45   -116239.13   -109258.25            0
Averages over the last 51 of 102 rows, steps 51000 to 100513:
E_vdwl E_bond E_angle E_dihed E_impro PotEng KinEng TotEng Temp Press Volume v_coulomb Enthalpy
551.682 1541.93 2649.71 492.387 272.822 -110585 3036.71 -107549 300.428 9.58042 139240 -116094 -107529
Loop time of 609.736 on 112 procs for 100000 steps with 3392 atoms

write_data      data_1_relax.*
System init for write_data ...
PPPM initialization ...
  G vector (1/distance) = 0.27552853
  grid = 54 54 54
  stencil order = 5
  estimated absolute RMS force accuracy = 0.000288297
  estimated relative force accuracy = 8.6819787e-07
  3d grid and FFT values/proc = 6615 1568
unfix 1

fix             1 all npt temp  300 300 100  tri  0 2000 1000
run		200000
PPPM initialization ...
  G vector (1/distance) = 0.27552853
  grid = 54 54 54
  stencil order = 5
  estimated absolute RMS force accuracy = 0.000288297
  estimated relative force accuracy = 8.6819787e-07
  3d grid and FFT values/proc = 6615 1568
Step E_vdwl E_bond E_angle E_dihed E_impro PotEng KinEng TotEng Temp Press Volume v_coulomb Enthalpy S/CPU
100513    553.30564     1491.768    2660.4201    502.71393    254.71375   -110600.86     3068.683   -107532.18    303.59173    -47.95123    139442.05   -116063.78   -107629.69            0
Averages over the last 101 of 202 rows, steps 201000 to 300513:
E_vdwl E_bond E_angle E_dihed E_impro PotEng KinEng TotEng Temp Press Volume v_coulomb Enthalpy
603.129 1481.83 2678.76 527.179 277.379 -110520 3032.99 -107487 300.06 1507.86 137063 -116088 -104476
Loop time of 1220.82 on 112 procs for 200000 steps with 3392 atoms

write_data      data_2_150MPa.*
System init for write_data ...
PPPM initialization ...
  G vector (1/distance) = 0.27555223
  grid = 54 54 54
  stencil order = 5
  estimated absolute RMS force accuracy = 0.00029123381
  estimated relative force accuracy = 8.7704196e-07
  3d grid and FFT values/proc = 6615 1568
unfix 1

fix             1 all npt temp  300 300 100  tri  2000 2000 1000
run		300000
PPPM initialization ...
  G vector (1/distance) = 0.27555223
  grid = 54 54 54
  stencil order = 5
  estimated absolute RMS force accuracy = 0.00029123381
  estimated relative force accuracy = 8.7704196e-07
  3d grid and FFT values/proc = 6615 1568
Step E_vdwl E_bond E_angle E_dihed E_impro PotEng KinEng TotEng Temp Press Volume v_coulomb Enthalpy S/CPU
300513    617.70145    1482.1746    2667.6589     542.1174    284.95153    -110487.8    3024.4469   -107463.35    299.21535    2145.7573    136162.84    -116082.4   -103202.31            0
Averages over the last 151 of 302 rows, steps 451000 to 600513:
E_vdwl E_bond E_angle E_dihed E_impro PotEng KinEng TotEng Temp Press Volume v_coulomb Enthalpy
620.91 1464.5 2692.52 548.444 278.667 -110483 3032.72 -107450 300.034 1975.44 136166 -116088 -103528
Loop time of 1834.24 on 112 procs for 300000 steps with 3392 atoms

write_data      data_3_150MPa.*
System init for write_data ...
PPPM initialization ...
  G vector (1/distance) = 0.27582229
  grid = 54 54 54
  stencil order = 5
  estimated absolute RMS force accuracy = 0.00028561826
  estimated relative force accuracy = 8.601309e-07
  3d grid and FFT values/proc = 6615 1568
unfix 1

#-------------------------------------------------------------------------------
shell "cat log.lammps | grep -v '[a-zA-Z]' | grep -v '^[[:space:]]*$' | grep -v '}' | grep -v '^-*$' | grep -v '^#*$' | grep -v '#-' | tail -n +4 > lmps.dat"
